omf/static/testFiles/3300 bus feeder with pv and storage/MasterNewNames24hr_clean.dss


!!!master.dss
clear
new object=circuit.feeder_rdt1527_dash_rhs0_1247x

! Non-alpha-numeric, non-underscore characters in object names of original.dss have been changed by following scheme:
! . -> _dot_
! ( -> _op_
! ) -> _cp_
! - -> _dash_
! : -> _col_
! / -> _fs_
! # -> _num_

! redirect vsource.dss
! redirect linecode.dss
! redirect loadshape.dss
! redirect growthshape.dss
! redirect xycurve.dss
! redirect tcc_curve.dss
! redirect spectrum.dss
! redirect line.dss
! redirect load.dss
! redirect transformer.dss
! redirect regcontrol.dss
! redirect storage.dss
! redirect fuse.dss
! redirect pvsystem.dss
! redirect invcontrol.dss
! makebuslist
! redirect busvoltagebases.dss ! set voltage bases
! buscoords buscoords.dss
! giscoords giscoords.dss


!!!loadshape.dss
new object=loadshape.default npts=24 interval=1.0 mult=[0.677,0.6256,0.6087,0.5833,0.58028,0.6025,0.657,0.7477,0.832,0.88,0.94,0.989,0.985,0.98,0.9898,0.999,1,0.958,0.936,0.913,0.876,0.876,0.828,0.756]
new object=loadshape.gso_36_dot_1751__dash_79_dot_7183_45_225 npts=24 interval=1.0 mult=[0,0,0,0,0,0,0,0.01451,0.10866,0.35557,0.59557,0.79334,0.92379,0.97082,0.92836,0.7549,0.38254,0,0,0,0,0,0,0]
new object=loadshape.gso_36_dot_2120__dash_79_dot_7183_35_135 npts=24 interval=1.0 mult=[0,0,0,0,0,0,0,0.16156,0.61364,0.82327,0.90204,0.90103,0.80949,0.6455,0.43071,0.18968,0.0225,0,0,0,0,0,0,0]
new object=loadshape.gso_36_dot_1751__dash_79_dot_7183_15_225 npts=24 interval=1.0 mult=[0,0,0,0,0,0,0,0.01671,0.17333,0.38245,0.55942,0.68158,0.73417,0.71179,0.61573,0.43991,0.18058,0,0,0,0,0,0,0]
new object=loadshape.gso_36_dot_2489__dash_79_dot_7183_25_180 npts=24 interval=1.0 mult=[0,0,0,0,0,0,0,0.07562,0.39312,0.63374,0.79992,0.89137,0.90018,0.82463,0.67563,0.45235,0.16688,0,0,0,0,0,0,0]
new object=loadshape.gso_36_dot_1751__dash_79_dot_7183_35_270 npts=24 interval=1.0 mult=[0,0,0,0,0,0,0,0.01546,0.0387,0.04785,0.20747,0.39722,0.54439,0.62969,0.63967,0.54556,0.28633,0,0,0,0,0,0,0]
new object=loadshape.gso_36_dot_2120__dash_79_dot_7183_15_225 npts=24 interval=1.0 mult=[0,0,0,0,0,0,0,0.0172,0.17356,0.38157,0.55593,0.68082,0.73396,0.71079,0.61506,0.43828,0.18035,0,0,0,0,0,0,0]
new object=loadshape.gso_36_dot_1751__dash_79_dot_7183_45_135 npts=24 interval=1.0 mult=[0,0,0,0,0,0,0,0.20093,0.70023,0.9101,0.97527,0.94722,0.83156,0.64707,0.41568,0.16694,0.02271,0,0,0,0,0,0,0]
new object=loadshape.gso_36_dot_2120__dash_79_dot_7183_35_90 npts=24 interval=1.0 mult=[0,0,0,0,0,0,0,0.14644,0.51045,0.63334,0.63908,0.57304,0.43842,0.25746,0.05185,0.04301,0.0225,0,0,0,0,0,0,0]
new object=loadshape.gso_36_dot_2120__dash_79_dot_7183_35_180 npts=24 interval=1.0 mult=[0,0,0,0,0,0,0,0.09576,0.45759,0.71568,0.88415,0.98521,0.99418,0.91498,0.76009,0.5194,0.20326,0,0,0,0,0,0,0]
new object=loadshape.gso_36_dot_2120__dash_79_dot_7183_45_270 npts=24 interval=1.0 mult=[0,0,0,0,0,0,0,0.01494,0.04117,0.05183,0.11158,0.32472,0.50452,0.62564,0.67207,0.60241,0.33592,0,0,0,0,0,0,0]
new object=loadshape.gso_36_dot_2120__dash_79_dot_7183_25_90 npts=24 interval=1.0 mult=[0,0,0,0,0,0,0,0.11562,0.43305,0.57396,0.61554,0.58883,0.49184,0.34141,0.15518,0.04039,0.02209,0,0,0,0,0,0,0]
new object=loadshape.gso_36_dot_2120__dash_79_dot_7183_25_180 npts=24 interval=1.0 mult=[0,0,0,0,0,0,0,0.07828,0.3941,0.63463,0.7961,0.89252,0.90134,0.82587,0.67752,0.45199,0.16695,0,0,0,0,0,0,0]
new object=loadshape.gso_36_dot_1751__dash_79_dot_7183_15_135 npts=24 interval=1.0 mult=[0,0,0,0,0,0,0,0.09182,0.38986,0.58542,0.6984,0.7379,0.70041,0.59329,0.42808,0.22471,0.03247,0,0,0,0,0,0,0]
new object=loadshape.gso_36_dot_1751__dash_79_dot_7183_25_90 npts=24 interval=1.0 mult=[0,0,0,0,0,0,0,0.12058,0.43278,0.57492,0.6194,0.58958,0.49206,0.34232,0.15563,0.04128,0.02207,0,0,0,0,0,0,0]
new object=loadshape.gso_36_dot_1751__dash_79_dot_7183_35_90 npts=24 interval=1.0 mult=[0,0,0,0,0,0,0,0.15313,0.51015,0.63428,0.64304,0.57374,0.43858,0.2583,0.05184,0.0439,0.02249,0,0,0,0,0,0,0]
new object=loadshape.gso_36_dot_2120__dash_79_dot_7183_45_180 npts=24 interval=1.0 mult=[0,0,0,0,0,0,0,0.11059,0.50824,0.77659,0.94747,1.05035,1.05925,0.97853,0.82135,0.57225,0.23388,0,0,0,0,0,0,0]
new object=loadshape.gso_36_dot_2120__dash_79_dot_7183_25_270 npts=24 interval=1.0 mult=[0,0,0,0,0,0,0,0.01668,0.03707,0.1054,0.29652,0.45883,0.5698,0.61496,0.5883,0.47002,0.22794,0,0,0,0,0,0,0]
new object=loadshape.gso_36_dot_2489__dash_79_dot_7183_35_180 npts=24 interval=1.0 mult=[0,0,0,0,0,0,0,0.09233,0.4566,0.71483,0.88853,0.98406,0.99303,0.91367,0.75813,0.51973,0.20307,0,0,0,0,0,0,0]
new object=loadshape.gso_36_dot_1751__dash_79_dot_7183_15_180 npts=24 interval=1.0 mult=[0,0,0,0,0,0,0,0.06052,0.31944,0.53684,0.69026,0.77588,0.78374,0.7149,0.57676,0.37363,0.12626,0,0,0,0,0,0,0]
new object=loadshape.gso_36_dot_1751__dash_79_dot_7183_45_270 npts=24 interval=1.0 mult=[0,0,0,0,0,0,0,0.01451,0.04072,0.05222,0.11232,0.32524,0.50465,0.62654,0.6727,0.60411,0.33624,0,0,0,0,0,0,0]
new object=loadshape.gso_36_dot_2120__dash_79_dot_7183_15_135 npts=24 interval=1.0 mult=[0,0,0,0,0,0,0,0.08838,0.39013,0.58448,0.69408,0.73712,0.7002,0.59233,0.4275,0.2233,0.03234,0,0,0,0,0,0,0]
new object=loadshape.gso_36_dot_1751__dash_79_dot_7183_35_180 npts=24 interval=1.0 mult=[0,0,0,0,0,0,0,0.09969,0.45725,0.71652,0.88941,0.9859,0.99423,0.91585,0.76069,0.521,0.20349,0,0,0,0,0,0,0]
new object=loadshape.gso_36_dot_1751__dash_79_dot_7183_45_180 npts=24 interval=1.0 mult=[0,0,0,0,0,0,0,0.1154,0.50786,0.77738,0.95302,1.05097,1.0592,0.97933,0.82189,0.57382,0.23411,0,0,0,0,0,0,0]
new object=loadshape.gso_36_dot_2120__dash_79_dot_7183_45_135 npts=24 interval=1.0 mult=[0,0,0,0,0,0,0,0.19172,0.70062,0.90923,0.96953,0.94658,0.83156,0.64632,0.41528,0.16577,0.02272,0,0,0,0,0,0,0]
new object=loadshape.gso_36_dot_2120__dash_79_dot_7183_15_270 npts=24 interval=1.0 mult=[0,0,0,0,0,0,0,0.0172,0.03729,0.21182,0.38005,0.5095,0.5805,0.58476,0.52149,0.38312,0.16341,0,0,0,0,0,0,0]
new object=loadshape.gso_36_dot_1751__dash_79_dot_7183_35_135 npts=24 interval=1.0 mult=[0,0,0,0,0,0,0,0.16907,0.61329,0.82418,0.90746,0.90174,0.80957,0.64634,0.43118,0.19095,0.02249,0,0,0,0,0,0,0]
new object=loadshape.gso_36_dot_2120__dash_79_dot_7183_25_135 npts=24 interval=1.0 mult=[0,0,0,0,0,0,0,0.12676,0.50909,0.71391,0.80929,0.8305,0.76526,0.62732,0.43482,0.20905,0.02209,0,0,0,0,0,0,0]
new object=loadshape.gso_36_dot_2120__dash_79_dot_7183_15_90 npts=24 interval=1.0 mult=[0,0,0,0,0,0,0,0.08155,0.34356,0.49877,0.57542,0.58912,0.53276,0.41723,0.25624,0.07909,0.0215,0,0,0,0,0,0,0]
new object=loadshape.gso_36_dot_1751__dash_79_dot_7183_15_270 npts=24 interval=1.0 mult=[0,0,0,0,0,0,0,0.01671,0.0371,0.21268,0.38254,0.51024,0.58076,0.58577,0.52216,0.38472,0.16364,0,0,0,0,0,0,0]
new object=loadshape.gso_36_dot_2120__dash_79_dot_7183_25_225 npts=24 interval=1.0 mult=[0,0,0,0,0,0,0,0.01668,0.15546,0.38258,0.58371,0.73857,0.82038,0.82075,0.74109,0.56009,0.2556,0,0,0,0,0,0,0]
new object=loadshape.gso_36_dot_2120__dash_79_dot_7183_35_225 npts=24 interval=1.0 mult=[0,0,0,0,0,0,0,0.01592,0.1337,0.37359,0.59589,0.77627,0.8843,0.90803,0.84637,0.6661,0.32357,0,0,0,0,0,0,0]
new object=loadshape.gso_36_dot_2120__dash_79_dot_7183_45_90 npts=24 interval=1.0 mult=[0,0,0,0,0,0,0,0.17308,0.5734,0.67508,0.64535,0.54223,0.3741,0.16794,0.0566,0.04556,0.02272,0,0,0,0,0,0,0]
new object=loadshape.gso_36_dot_2489__dash_79_dot_7183_15_180 npts=24 interval=1.0 mult=[0,0,0,0,0,0,0,0.05687,0.31875,0.53501,0.68914,0.77398,0.7824,0.71278,0.57437,0.37247,0.12611,0,0,0,0,0,0,0]
new object=loadshape.gso_36_dot_2120__dash_79_dot_7183_35_270 npts=24 interval=1.0 mult=[0,0,0,0,0,0,0,0.01592,0.03918,0.04746,0.20611,0.3966,0.54421,0.62873,0.639,0.54386,0.28603,0,0,0,0,0,0,0]
new object=loadshape.gso_36_dot_2120__dash_79_dot_7183_15_180 npts=24 interval=1.0 mult=[0,0,0,0,0,0,0,0.05868,0.31971,0.53593,0.68601,0.77511,0.78354,0.71392,0.57613,0.37208,0.12606,0,0,0,0,0,0,0]
new object=loadshape.gso_36_dot_1751__dash_79_dot_7183_25_270 npts=24 interval=1.0 mult=[0,0,0,0,0,0,0,0.0162,0.03658,0.10621,0.29846,0.45952,0.57002,0.61596,0.58897,0.47168,0.2282,0,0,0,0,0,0,0]
new object=loadshape.gso_36_dot_2120__dash_79_dot_7183_45_225 npts=24 interval=1.0 mult=[0,0,0,0,0,0,0,0.01494,0.10895,0.35487,0.5921,0.79277,0.92378,0.96996,0.92771,0.75311,0.38221,0,0,0,0,0,0,0]
new object=loadshape.gso_36_dot_2489__dash_79_dot_7183_25_135 npts=24 interval=1.0 mult=[0,0,0,0,0,0,0,0.12206,0.50799,0.71296,0.81314,0.82936,0.76418,0.62636,0.43336,0.20958,0.0226,0,0,0,0,0,0,0]
new object=loadshape.gso_36_dot_1751__dash_79_dot_7183_25_180 npts=24 interval=1.0 mult=[0,0,0,0,0,0,0,0.08121,0.3938,0.63552,0.80093,0.89327,0.90147,0.82681,0.67814,0.45358,0.16717,0,0,0,0,0,0,0]
new object=loadshape.gso_36_dot_1751__dash_79_dot_7183_35_225 npts=24 interval=1.0 mult=[0,0,0,0,0,0,0,0.01546,0.13343,0.37437,0.59947,0.77692,0.88439,0.90896,0.84705,0.66788,0.32389,0,0,0,0,0,0,0]
new object=loadshape.gso_36_dot_1751__dash_79_dot_7183_15_90 npts=24 interval=1.0 mult=[0,0,0,0,0,0,0,0.08463,0.34332,0.49973,0.57908,0.5899,0.53301,0.41819,0.25677,0.08037,0.02147,0,0,0,0,0,0,0]
new object=loadshape.gso_36_dot_2489__dash_79_dot_7183_45_225 npts=24 interval=1.0 mult=[0,0,0,0,0,0,0,0.01494,0.10828,0.35417,0.59488,0.79184,0.92273,0.96859,0.92547,0.75326,0.38145,0,0,0,0,0,0,0]
new object=loadshape.gso_36_dot_1751__dash_79_dot_7183_45_90 npts=24 interval=1.0 mult=[0,0,0,0,0,0,0,0.18128,0.57308,0.67599,0.64929,0.54286,0.37421,0.16869,0.0566,0.04643,0.02271,0,0,0,0,0,0,0]
new object=loadshape.gso_36_dot_1751__dash_79_dot_7183_25_225 npts=24 interval=1.0 mult=[0,0,0,0,0,0,0,0.0162,0.15521,0.38342,0.58729,0.73929,0.82053,0.82173,0.74177,0.56181,0.25588,0,0,0,0,0,0,0]
new object=loadshape.gso_36_dot_2489__dash_79_dot_7183_25_270 npts=24 interval=1.0 mult=[0,0,0,0,0,0,0,0.01668,0.03661,0.10459,0.29743,0.45795,0.56881,0.61393,0.58648,0.47031,0.22767,0,0,0,0,0,0,0]
new object=loadshape.gso_36_dot_1751__dash_79_dot_7183_25_135 npts=24 interval=1.0 mult=[0,0,0,0,0,0,0,0.13232,0.50877,0.71485,0.81423,0.83126,0.76541,0.62823,0.43535,0.2104,0.02207,0,0,0,0,0,0,0]
new object=loadshape.gso_36_dot_2489__dash_79_dot_7183_35_90 npts=24 interval=1.0 mult=[0,0,0,0,0,0,0,0.14088,0.50935,0.63239,0.64194,0.5721,0.4376,0.25705,0.05145,0.04392,0.02299,0,0,0,0,0,0,0]
new object=loadshape.gso_36_dot_2489__dash_79_dot_7183_35_135 npts=24 interval=1.0 mult=[0,0,0,0,0,0,0,0.15536,0.61251,0.82235,0.90648,0.89991,0.80846,0.64458,0.42932,0.19024,0.02299,0,0,0,0,0,0,0]
new object=loadshape.gso_36_dot_2489__dash_79_dot_7183_25_90 npts=24 interval=1.0 mult=[0,0,0,0,0,0,0,0.11139,0.43199,0.573,0.61822,0.58783,0.49093,0.34082,0.15417,0.04132,0.0226,0,0,0,0,0,0,0]
new object=loadshape.gso_36_dot_2489__dash_79_dot_7183_15_135 npts=24 interval=1.0 mult=[0,0,0,0,0,0,0,0.08531,0.3891,0.58353,0.69724,0.736,0.69912,0.59135,0.426,0.22379,0.03268,0,0,0,0,0,0,0]
new object=loadshape.gso_36_dot_2489__dash_79_dot_7183_45_135 npts=24 interval=1.0 mult=[0,0,0,0,0,0,0,0.18422,0.69947,0.90835,0.97441,0.9455,0.83059,0.64547,0.414,0.16637,0.02318,0,0,0,0,0,0,0]
new object=loadshape.gso_36_dot_2489__dash_79_dot_7183_15_90 npts=24 interval=1.0 mult=[0,0,0,0,0,0,0,0.07877,0.34255,0.49782,0.57787,0.58808,0.53177,0.41648,0.25502,0.07967,0.02203,0,0,0,0,0,0,0]
new object=loadshape.gso_36_dot_2489__dash_79_dot_7183_45_270 npts=24 interval=1.0 mult=[0,0,0,0,0,0,0,0.01494,0.04073,0.05144,0.11154,0.32406,0.50369,0.62468,0.67019,0.60261,0.3353,0,0,0,0,0,0,0]
new object=loadshape.gso_36_dot_2489__dash_79_dot_7183_15_270 npts=24 interval=1.0 mult=[0,0,0,0,0,0,0,0.0172,0.03653,0.21095,0.38141,0.50854,0.57946,0.58374,0.51978,0.38347,0.16334,0,0,0,0,0,0,0]
new object=loadshape.gso_36_dot_1751__dash_79_dot_7183_55_180 npts=24 interval=1.0 mult=[0,0,0,0,0,0,0,0.12787,0.5441,0.81625,0.98981,1.0865,1.09442,1.0153,0.85991,0.61046,0.25811,0,0,0,0,0,0,0]
new object=loadshape.gso_36_dot_2489__dash_79_dot_7183_35_225 npts=24 interval=1.0 mult=[0,0,0,0,0,0,0,0.01592,0.13296,0.37282,0.59861,0.77527,0.88319,0.90669,0.84421,0.66631,0.32301,0,0,0,0,0,0,0]
new object=loadshape.gso_36_dot_2489__dash_79_dot_7183_45_90 npts=24 interval=1.0 mult=[0,0,0,0,0,0,0,0.16636,0.5723,0.67418,0.64828,0.54137,0.37339,0.16771,0.0562,0.04643,0.02318,0,0,0,0,0,0,0]
new object=loadshape.res_kw_278_pu npts=24 interval=1.0 mult=[0.0756448,0.0801579,0.0919856,0.0926035,0.0971784,0.134957,0.138393,0.155018,0.184962,0.226015,0.226445,0.207809,0.210462,0.188269,0.176043,0.199932,0.22512,0.210891,0.232752,0.663022,0.167286,0.12166,0.0908882,0.0850731] qmult=[0.163765,0.171097,0.197327,0.197313,0.204431,0.278972,0.292411,0.352132,0.453146,0.569313,0.578916,0.54501,0.558047,0.468523,0.422229,0.433229,0.430227,0.375623,0.30503,0.585493,0.250851,0.213569,0.17822,0.177857]
new object=loadshape.res_kw_1246_pu npts=24 interval=1.0 mult=[0.117963,0.114049,0.114661,0.0999215,0.10678,0.480068,0.677802,0.721198,0.17193,0.166554,0.164524,0.161994,0.181218,0.175923,0.170505,0.175029,0.149255,0.219987,0.242902,0.248302,0.246524,0.222911,0.202026,0.14418] qmult=[0.226157,0.21902,0.219453,0.196817,0.212976,0.388186,0.486632,0.544206,0.29127,0.283425,0.281417,0.281109,0.315339,0.306636,0.295514,0.303151,0.267289,0.35596,0.367698,0.356823,0.359573,0.343315,0.314921,0.264915]
new object=loadshape.res_kw_324_pu npts=24 interval=1.0 mult=[0.125652,0.123975,0.12543,0.126167,0.098843,0.107719,0.368849,0.471103,0.47066,0.253678,0.164445,0.280475,0.301622,0.178158,0.289834,0.186135,0.224783,0.336007,0.249935,0.262903,0.366865,0.232242,0.235531,0.22] qmult=[0.270941,0.270065,0.273275,0.275881,0.214855,0.23233,0.463757,0.578925,0.57854,0.27737,0.278221,0.271717,0.587492,0.317796,0.552094,0.327888,0.337606,0.577855,0.333112,0.325798,0.564403,0.326103,0.362768,0.464997]
new object=loadshape.res_kw_1205_pu npts=24 interval=1.0 mult=[0.253052,0.22738,0.20765,0.205732,0.208787,0.213669,0.514866,0.384102,0.421979,0.471329,0.543937,0.434331,0.332061,0.58737,0.268315,0.588171,0.605763,0.650113,0.569409,0.618915,0.676863,0.638896,0.578867,0.521661] qmult=[0.326338,0.326198,0.303282,0.296296,0.300521,0.305534,0.643214,0.433095,0.532008,0.589475,0.673302,0.546882,0.435721,0.725273,0.361318,0.723999,0.737874,0.773489,0.690652,0.711883,0.757484,0.737626,0.689016,0.654069]
new object=loadshape.res_kw_454_pu npts=24 interval=1.0 mult=[0.0764652,0.0753709,0.07622,0.124586,0.080713,0.0816858,0.227655,0.0901943,0.171094,0.0955351,0.0824929,0.107696,0.0801479,0.198986,0.126539,0.187942,0.204924,0.0814102,0.218511,0.178005,0.12161,0.183149,0.221881,0.0717956] qmult=[0.192606,0.191193,0.193335,0.293359,0.202614,0.203466,0.246172,0.216486,0.395471,0.23195,0.197158,0.251492,0.194661,0.444377,0.292957,0.42242,0.19216,0.193368,0.470713,0.375806,0.258894,0.387878,0.489447,0.179559]
new object=loadshape.res_kw_664_pu npts=24 interval=1.0 mult=[0.0745211,0.0755965,0.0777118,0.0791602,0.0800476,0.0825637,0.11364,0.105027,0.096195,0.089369,0.0868857,0.238283,0.143663,0.576248,0.194559,0.27287,0.287598,0.182842,0.270549,0.323016,0.323699,0.144433,0.135087,0.0786367] qmult=[0.156707,0.159064,0.162607,0.165206,0.167241,0.170957,0.223018,0.207621,0.195153,0.185641,0.181099,0.498425,0.27985,0.473828,0.282902,0.482301,0.503284,0.31773,0.346537,0.513028,0.518407,0.235231,0.223331,0.161854]
new object=loadshape.res_kw_35_pu npts=24 interval=1.0 mult=[0.121793,0.120718,0.121937,0.107227,0.111177,0.115458,0.147877,0.157236,0.110509,0.105233,0.103217,0.099148,0.112322,0.105625,0.0843104,0.0845852,0.0898695,0.11868,0.181872,0.190118,0.188809,0.17548,0.13141,0.129589] qmult=[0.286215,0.284111,0.286505,0.253511,0.262636,0.271574,0.306985,0.31725,0.262589,0.253104,0.24806,0.238756,0.269068,0.253263,0.205002,0.205075,0.216409,0.281669,0.313959,0.312392,0.319195,0.318254,0.305047,0.302698]
new object=loadshape.res_kw_843_pu npts=24 interval=1.0 mult=[0.236685,0.0976158,0.0978467,0.0979152,0.09838,0.264101,0.120013,0.128858,0.115167,0.130912,0.255474,0.284804,0.147539,0.145164,0.141513,0.282907,0.165036,0.188719,0.334395,0.336627,0.196295,0.184992,0.144058,0.115792] qmult=[0.550047,0.262523,0.262357,0.261997,0.263163,0.263114,0.30701,0.327042,0.302573,0.335078,0.590826,0.654368,0.376154,0.37083,0.360394,0.653014,0.411507,0.455539,0.737312,0.72507,0.43792,0.429265,0.353006,0.305364]
new object=loadshape.res_kw_462_pu npts=24 interval=1.0 mult=[0.0713126,0.0683704,0.0692387,0.0699066,0.0696663,0.0901344,0.106311,0.106951,0.0768234,0.071978,0.070069,0.0672844,0.067728,0.0687944,0.06975,0.07062,0.0906805,0.124241,0.129535,0.13053,0.090789,0.107876,0.0692999,0.0700568] qmult=[0.23241,0.224166,0.226348,0.22813,0.227783,0.282915,0.317498,0.318774,0.247499,0.236185,0.230962,0.223538,0.225015,0.227306,0.229433,0.231493,0.281531,0.360857,0.358722,0.348036,0.262186,0.302418,0.224303,0.227137]
new object=loadshape.res_kw_4_pu npts=24 interval=1.0 mult=[0.294977,0.101345,0.1018,0.102048,0.102398,0.236873,0.105439,0.313159,0.229455,0.126678,0.376436,0.497711,0.767792,0.31004,0.118059,0.110986,0.302371,0.313161,0.389538,0.409673,0.354288,0.408869,0.328689,0.301827] qmult=[0.611332,0.245167,0.245537,0.245644,0.246182,0.498599,0.251502,0.641456,0.484594,0.293316,0.929899,0.493729,0.58537,0.642176,0.279983,0.266483,0.626016,0.644157,0.654501,0.689252,0.697571,0.693859,0.657756,0.623279]
new object=loadshape.res_kw_517_pu npts=24 interval=1.0 mult=[0.167559,0.144939,0.132311,0.137358,0.152691,0.171104,0.355691,0.335039,0.218415,0.29672,0.304886,0.238066,0.277624,0.116054,0.234249,0.338678,0.40843,0.415376,0.410751,0.411188,0.375741,0.342605,0.136806,0.137655] qmult=[0.217458,0.18998,0.175302,0.179815,0.192618,0.207951,0.425999,0.410258,0.270155,0.370651,0.377265,0.301956,0.350238,0.155861,0.294035,0.404851,0.465067,0.468469,0.461062,0.454022,0.430519,0.410188,0.178957,0.180809]
new object=loadshape.res_kw_670_pu npts=24 interval=1.0 mult=[0.135574,0.13578,0.144089,0.165538,0.314827,0.144836,0.258328,0.264352,0.159884,0.142123,0.121609,0.125152,0.121069,0.121588,0.132303,0.139608,0.152961,0.253502,0.178745,0.476521,0.235463,0.17631,0.162467,0.152605] qmult=[0.2762,0.276904,0.293626,0.287042,0.604982,0.294047,0.313208,0.319566,0.29977,0.278591,0.251251,0.246314,0.239696,0.240143,0.249857,0.250745,0.269621,0.456363,0.30502,0.639113,0.331534,0.308608,0.306573,0.302527]
new object=loadshape.res_kw_917_pu npts=24 interval=1.0 mult=[0.522272,0.680555,0.781332,0.465646,0.488622,0.512245,0.529327,0.513826,0.432917,0.379133,0.441937,0.500427,0.380598,0.341339,0.278769,0.249335,0.282692,0.440623,0.441852,0.483841,0.554582,0.573307,0.568238,0.593625] qmult=[0.375442,0.889226,0.885295,0.346042,0.344973,0.344973,0.378362,0.349247,0.350316,0.350316,0.43762,0.466963,0.400388,0.400707,0.445692,0.454418,0.468376,0.562335,0.716869,0.6802,0.644599,0.618646,0.472788,0.438523]
new object=loadshape.res_kw_452_pu npts=24 interval=1.0 mult=[0.140534,0.13898,0.140755,0.143638,0.149619,0.162285,0.196963,0.409516,0.25643,0.2872,0.287462,0.327979,0.274214,0.231033,0.190534,0.17698,0.155034,0.186759,0.235871,0.228173,0.198195,0.216026,0.147348,0.148875] qmult=[0.164893,0.16334,0.165107,0.168559,0.17671,0.192784,0.223603,0.529222,0.307118,0.354772,0.357496,0.352295,0.34339,0.284247,0.246893,0.226713,0.193803,0.200587,0.209996,0.182084,0.193372,0.195432,0.170973,0.173112]
new object=loadshape.res_kw_624_pu npts=24 interval=1.0 mult=[0.261654,0.271835,0.290696,0.385872,0.455285,0.341235,0.498073,0.317988,0.228384,0.193386,0.193864,0.180645,0.17383,0.178913,0.179246,0.178046,0.27634,0.354534,0.395424,0.350808,0.28053,0.276272,0.305398,0.315561] qmult=[0.199951,0.199235,0.198519,0.560507,0.576916,0.197087,0.205829,0.199951,0.216612,0.18934,0.188757,0.182077,0.180095,0.208649,0.232519,0.237162,0.295911,0.596338,0.658441,0.496219,0.283702,0.243665,0.245821,0.200667]
new object=loadshape.res_kw_33_pu npts=24 interval=1.0 mult=[0.14234,0.1407,0.141368,0.141954,0.14722,0.152125,0.145362,0.17114,0.189704,0.178654,0.146125,0.168373,0.14188,0.137049,0.646938,0.683491,0.215579,0.515492,0.528202,0.538145,0.548077,0.50625,0.323454,0.223639] qmult=[0.238959,0.237286,0.238057,0.238985,0.251346,0.253554,0.242065,0.269743,0.2904,0.276417,0.239954,0.265426,0.237068,0.229325,0.628046,0.673717,0.318921,0.750779,0.736649,0.727426,0.749339,0.713414,0.527695,0.35148]
new object=loadshape.res_kw_319_pu npts=24 interval=1.0 mult=[0.067052,0.0666119,0.0675141,0.0681569,0.0685434,0.0768665,0.0971084,0.0723435,0.0676446,0.0640872,0.0633535,0.0611139,0.0598424,0.0774738,0.0745702,0.0746914,0.0817122,0.0911768,0.10002,0.0688401,0.102505,0.0972193,0.0920174,0.0710597] qmult=[0.183749,0.183051,0.185183,0.186839,0.188195,0.206202,0.231837,0.195715,0.186338,0.179352,0.177253,0.171522,0.168749,0.197647,0.189256,0.189054,0.20264,0.216125,0.223985,0.184813,0.223662,0.222682,0.214933,0.192401]
new object=loadshape.res_kw_93_pu npts=24 interval=1.0 mult=[0.215608,0.195558,0.193189,0.19189,0.188959,0.201856,0.22372,0.238965,0.23024,0.223264,0.244296,0.219363,0.217092,0.217566,0.211898,0.207796,0.260129,0.589625,0.36018,0.466923,0.44715,0.396905,0.305341,0.195107] qmult=[0.376827,0.352409,0.350086,0.34734,0.344838,0.351598,0.360663,0.375222,0.370787,0.367403,0.401269,0.363883,0.365163,0.363315,0.351784,0.343905,0.416028,0.421539,0.437723,0.473757,0.462229,0.452659,0.395514,0.340468]
new object=loadshape.res_kw_933_pu npts=24 interval=1.0 mult=[0.0998412,0.0882835,0.0712845,0.076508,0.0800504,0.0866755,0.0918083,0.0960528,0.11485,0.111125,0.0976188,0.168727,0.130856,0.115003,0.132551,0.70988,0.294509,0.145522,0.167401,0.167908,0.177429,0.161068,0.132667,0.107401] qmult=[0.27545,0.252286,0.217981,0.22807,0.235003,0.25092,0.260675,0.27099,0.318164,0.311268,0.280447,0.41241,0.356006,0.318681,0.362068,0.828929,0.354345,0.38621,0.426274,0.413352,0.429758,0.405118,0.341788,0.293693]
new object=loadshape.res_kw_203_pu npts=24 interval=1.0 mult=[0.330961,0.321562,0.321674,0.274307,0.13534,0.275382,0.52673,0.454711,0.455919,0.396285,0.364851,0.360629,0.333953,0.343316,0.14899,0.33493,0.290384,0.224178,0.474938,0.484752,0.474262,0.449481,0.363059,0.329277] qmult=[0.538008,0.524068,0.524207,0.454101,0.247993,0.45192,0.579983,0.633666,0.65499,0.604347,0.569297,0.566052,0.536383,0.549945,0.263571,0.304005,0.458749,0.349136,0.671044,0.662304,0.653013,0.644177,0.560796,0.530917]
new object=loadshape.res_kw_732_pu npts=24 interval=1.0 mult=[0.142333,0.130686,0.137447,0.132269,0.132707,0.135182,0.183785,0.167629,0.160594,0.152488,0.149845,0.145909,0.144144,0.140997,0.135586,0.102827,0.146411,0.178595,0.273306,0.25479,0.192069,0.182842,0.174086,0.154304] qmult=[0.280266,0.259791,0.272079,0.261868,0.262804,0.266502,0.316695,0.30105,0.290086,0.277014,0.272837,0.26786,0.267536,0.261584,0.250767,0.213117,0.264223,0.31044,0.354172,0.350347,0.306788,0.30598,0.296828,0.29074]
new object=loadshape.res_kw_267_pu npts=24 interval=1.0 mult=[0.114251,0.114259,0.1188,0.115373,0.121327,0.140845,0.124497,0.20626,0.458778,0.196577,0.190944,0.18288,0.17779,0.174164,0.194368,0.216971,0.282396,0.214794,0.27181,0.290311,0.282386,0.251443,0.178758,0.149389] qmult=[0.151002,0.151592,0.159528,0.152627,0.162593,0.18505,0.161623,0.196228,0.203698,0.185225,0.180496,0.174951,0.173166,0.168443,0.193688,0.183579,0.206133,0.180278,0.196242,0.192477,0.195546,0.196315,0.175184,0.175471]
new object=loadshape.res_kw_263_pu npts=24 interval=1.0 mult=[0.155055,0.150879,0.150781,0.155649,0.149798,0.153684,0.15949,0.346416,0.35517,0.352895,0.341448,0.160326,0.158192,0.157997,0.145569,0.185283,0.355406,0.2073,0.2282,0.236296,0.34712,0.391687,0.360794,0.153181] qmult=[0.273125,0.267085,0.26674,0.274575,0.26561,0.269831,0.27303,0.554008,0.569666,0.567731,0.54829,0.258394,0.25702,0.256136,0.242299,0.323811,0.556039,0.301851,0.311122,0.308018,0.493387,0.58711,0.575553,0.268435]
new object=loadshape.res_kw_752_pu npts=24 interval=1.0 mult=[0.25756,0.320807,0.268127,0.275033,0.281603,0.296831,0.425355,0.302753,0.24574,0.196897,0.188666,0.200674,0.217348,0.15671,0.258101,0.284501,0.302395,0.203309,0.355338,0.403613,0.425608,0.29287,0.295548,0.287231] qmult=[0.204966,0.235383,0.208197,0.210524,0.212692,0.220149,0.27355,0.226738,0.202161,0.181018,0.197519,0.186728,0.341206,0.187791,0.415083,0.45152,0.478216,0.187871,0.504069,0.58145,0.583429,0.26939,0.257371,0.221338]
new object=loadshape.res_kw_549_pu npts=24 interval=1.0 mult=[0.0685524,0.0680741,0.0683164,0.0693441,0.154542,0.069159,0.194483,0.104129,0.1458,0.174392,0.169691,0.284183,0.176509,0.154171,0.149053,0.139044,0.109209,0.264156,0.276929,0.263679,0.25532,0.0907092,0.207197,0.0721969] qmult=[0.159069,0.158313,0.158558,0.160949,0.33101,0.168032,0.237277,0.247342,0.348233,0.423585,0.419601,0.635167,0.429375,0.370355,0.33609,0.294585,0.254467,0.346913,0.508488,0.500266,0.483841,0.189704,0.421788,0.164878]
new object=loadshape.res_kw_1267_pu npts=24 interval=1.0 mult=[0.423762,0.100662,0.125318,0.162368,0.192782,0.24728,0.262346,0.255801,0.15409,0.112589,0.515294,0.372065,0.319223,0.274061,0.217269,0.154196,0.17186,0.279428,0.280693,0.334229,0.403701,0.662485,0.444359,0.468482] qmult=[0.0387911,0.0312646,0.0373671,0.0380778,0.0378401,0.0392213,0.0383156,0.0387911,0.0390288,0.0347954,0.0387911,0.0387911,0.0392665,0.0392665,0.0411082,0.0390288,0.039742,0.040693,0.0411685,0.040693,0.0404553,0.295666,0.039742,0.0393845]
new object=loadshape.res_kw_985_pu npts=24 interval=1.0 mult=[0.196813,0.0589427,0.0584603,0.0579687,0.0580218,0.204842,0.214637,0.234012,0.0886053,0.0878555,0.0875733,0.204662,0.100723,0.142734,0.0727048,0.0738621,0.261637,0.299151,0.247689,0.247412,0.243686,0.238463,0.094059,0.0650705] qmult=[0.325774,0.118911,0.117714,0.116518,0.116496,0.341238,0.354727,0.346959,0.17208,0.17183,0.171802,0.34844,0.153713,0.252853,0.148288,0.151026,0.404781,0.463716,0.411527,0.405055,0.397677,0.393054,0.174435,0.129314]
new object=loadshape.res_kw_1037_pu npts=24 interval=1.0 mult=[0.0926868,0.0675342,0.141223,0.0801175,0.0877637,0.0975576,0.319978,0.123544,0.120475,0.114197,0.154271,0.171897,0.0571708,0.0645228,0.250304,0.317205,0.351452,0.369351,0.367009,0.372349,0.466479,0.170173,0.159215,0.10142] qmult=[0.15412,0.119297,0.230518,0.137726,0.153492,0.170968,0.484581,0.170056,0.167972,0.16014,0.220076,0.249571,0.10573,0.115145,0.400907,0.480127,0.537179,0.54617,0.509508,0.501708,0.573479,0.212101,0.202929,0.163708]
new object=loadshape.res_kw_250_pu npts=24 interval=1.0 mult=[0.0813176,0.0841167,0.0861766,0.0882498,0.0919752,0.0982702,0.107423,0.360469,0.20931,0.423617,0.422968,0.364977,0.361207,0.200295,0.184872,0.200221,0.169399,0.192695,0.374828,0.218403,0.362112,0.329962,0.18952,0.0961839] qmult=[0.156268,0.160262,0.162995,0.166218,0.173073,0.184334,0.201077,0.581123,0.375097,0.700525,0.702526,0.611981,0.606684,0.369941,0.34052,0.326061,0.305679,0.331503,0.582847,0.34015,0.548748,0.510186,0.312525,0.176252]
new object=loadshape.res_kw_1157_pu npts=24 interval=1.0 mult=[0.131018,0.130332,0.13309,0.139544,0.152265,0.153055,0.181547,0.230773,0.180707,0.134018,0.130866,0.12446,0.122486,0.160612,0.157771,0.165112,0.170501,0.19298,0.279682,0.272986,0.270404,0.246192,0.139032,0.140444] qmult=[0.308907,0.308271,0.314089,0.328685,0.35628,0.357041,0.395757,0.469563,0.389794,0.320742,0.313568,0.299509,0.295786,0.354211,0.346007,0.361654,0.365521,0.397201,0.497213,0.452019,0.45777,0.445601,0.320589,0.32612]
new object=loadshape.res_kw_1070_pu npts=24 interval=1.0 mult=[0.329425,0.340154,0.358819,0.373945,0.448921,0.73457,0.825202,0.54115,0.45691,0.452617,0.462711,0.427892,0.41835,0.2227,0.446563,0.331967,0.614309,0.846123,0.476325,0.455322,0.676624,0.539935,0.597754,0.393204] qmult=[0.613543,0.622796,0.640528,0.654711,0.989904,1.96746,2.02178,0.927528,1.6195,1.76865,1.77694,1.63097,1.56129,0.511899,1.5843,0.701436,0.723302,2.00861,1.18132,0.970382,1.94425,1.74775,1.78474,0.678569]
new object=loadshape.res_kw_929_pu npts=24 interval=1.0 mult=[0.411432,0.417896,0.451476,0.47704,0.500937,0.545227,0.605788,0.593416,0.489759,0.472426,0.411216,0.317925,0.384128,0.249273,0.228094,0.22495,0.261086,0.331307,0.374342,0.479702,0.49835,0.46283,0.541155,0.516579] qmult=[0.154544,0.15388,0.153216,0.154149,0.210394,0.185071,0.291419,0.305201,0.311955,0.587421,0.461247,0.370292,0.607655,0.29227,0.261439,0.239966,0.242607,0.2346,0.222944,0.218881,0.206184,0.194322,0.329792,0.155208]
new object=loadshape.res_kw_134_pu npts=24 interval=1.0 mult=[0.149714,0.148618,0.150178,0.159112,0.152593,0.155351,0.155782,0.161139,0.156017,0.167924,0.148123,0.176257,0.173986,0.169412,0.163626,0.165494,0.219354,0.197321,0.212354,0.217346,0.290409,0.208204,0.156348,0.156714] qmult=[0.42747,0.42494,0.427945,0.457754,0.433168,0.438938,0.439695,0.45253,0.444006,0.477683,0.427167,0.481105,0.479959,0.468989,0.453334,0.457841,0.567853,0.519479,0.535376,0.529833,0.655083,0.527699,0.441329,0.442231]
new object=loadshape.res_kw_280_pu npts=24 interval=1.0 mult=[0.111325,0.10466,0.105863,0.106592,0.109822,0.110067,0.13066,0.138932,0.133605,0.129476,0.126088,0.119053,0.120569,0.113165,0.109815,0.0851059,0.0897904,0.17626,0.200987,0.210873,0.20482,0.151376,0.144063,0.113728] qmult=[0.289822,0.273419,0.275927,0.277753,0.289403,0.285794,0.306833,0.318301,0.309378,0.303105,0.295369,0.280187,0.288015,0.267573,0.257259,0.228987,0.238363,0.333832,0.346808,0.341147,0.339701,0.313423,0.307751,0.290835]
new object=loadshape.res_kw_825_pu npts=24 interval=1.0 mult=[0.0935356,0.0947463,0.0956024,0.0961887,0.0965068,0.292157,0.153989,0.11278,0.108931,0.128576,0.28507,0.0936153,0.102588,0.0906301,0.275906,0.0981485,0.102463,0.222858,0.314644,0.342547,0.317233,0.253601,0.31047,0.105173] qmult=[0.214959,0.216761,0.217666,0.218203,0.218472,0.564867,0.316353,0.243441,0.238278,0.268082,0.55554,0.216536,0.234711,0.21225,0.540252,0.221539,0.228914,0.432196,0.596541,0.622512,0.595314,0.488019,0.588662,0.234562]
new object=loadshape.res_kw_523_pu npts=24 interval=1.0 mult=[0.121758,0.123235,0.114774,0.116431,0.120859,0.129684,0.138323,0.157041,0.190015,0.21929,0.264911,0.229442,0.244118,0.211977,0.198236,0.187534,0.205785,0.208108,0.220989,0.223325,0.213547,0.195802,0.160739,0.138724] qmult=[0.244143,0.24694,0.230928,0.234356,0.24481,0.263865,0.283737,0.327027,0.411494,0.487068,0.509161,0.494271,0.512104,0.437493,0.403836,0.376197,0.378366,0.355126,0.343485,0.324109,0.311319,0.304786,0.270737,0.262845]
new object=loadshape.res_kw_1108_pu npts=24 interval=1.0 mult=[0.156667,0.167516,0.181554,0.294546,0.38215,0.181899,0.215331,0.256448,0.371129,0.241619,0.259384,0.329881,0.612076,0.358736,0.258538,0.287407,0.262765,0.331752,0.185347,0.17165,0.327694,0.429864,0.319131,0.21544] qmult=[0.155142,0.161127,0.169169,0.233613,0.52214,0.192441,0.234616,0.299349,0.674912,0.439756,0.534167,0.678704,0.931664,0.674878,0.483596,0.5733,0.388202,0.532776,0.282854,0.173241,0.483209,0.382873,0.480117,0.195162]
new object=loadshape.res_kw_595_pu npts=24 interval=1.0 mult=[0.177919,0.182299,0.189603,0.345604,0.276226,0.243419,0.405142,0.384599,0.86845,0.315096,0.329774,0.317342,0.299436,0.312514,0.178797,0.22367,0.137878,0.189008,0.323579,0.234811,0.18175,0.27443,0.193326,0.206269] qmult=[0.152316,0.153908,0.156832,0.241498,0.17934,0.293439,0.46484,0.26403,0.887097,0.589424,0.603677,0.59203,0.560621,0.468303,0.253816,0.394523,0.185011,0.204091,0.460117,0.219959,0.169505,0.341737,0.161196,0.165776]
new object=loadshape.res_kw_863_pu npts=24 interval=1.0 mult=[0.0625696,0.0607167,0.0748148,0.0700877,0.0696772,0.0756132,0.212365,0.13897,0.0897804,0.190094,0.0842545,0.189162,0.0816676,0.0822868,0.166577,0.0928523,0.237093,0.0900692,0.101647,0.147177,0.141671,0.0915915,0.0671703,0.066471] qmult=[0.148631,0.144182,0.167765,0.159303,0.158765,0.169863,0.373256,0.268423,0.188386,0.358043,0.179822,0.377844,0.178937,0.179744,0.344946,0.199227,0.257868,0.186551,0.196773,0.238527,0.232652,0.205364,0.157361,0.15623]
new object=loadshape.res_kw_1186_pu npts=24 interval=1.0 mult=[0.0826189,0.221601,0.0860157,0.0872992,0.0879661,0.0902204,0.142238,0.180515,0.135996,0.11693,0.10917,0.101103,0.0956918,0.227664,0.0871857,0.113874,0.10223,0.118731,0.172992,0.178507,0.173535,0.159772,0.120873,0.0942762] qmult=[0.228934,0.247244,0.237029,0.240006,0.242106,0.246435,0.326413,0.318479,0.319239,0.294156,0.277049,0.260528,0.250565,0.248219,0.228847,0.275885,0.258914,0.284651,0.353745,0.34467,0.339769,0.334384,0.283184,0.252939]
new object=loadshape.res_kw_597_pu npts=24 interval=1.0 mult=[0.0527787,0.0504058,0.0470608,0.049152,0.0589581,0.0721631,0.279846,0.178782,0.056622,0.0564824,0.049014,0.0539053,0.0486797,0.0487815,0.0541767,0.0789928,0.125956,0.130482,0.106192,0.103768,0.104297,0.0815278,0.0665013,0.0584845] qmult=[0.2004,0.185434,0.177179,0.180235,0.200781,0.231381,0.259325,0.214595,0.209809,0.210435,0.19082,0.20665,0.191555,0.191555,0.202024,0.26015,0.367708,0.381447,0.328651,0.317995,0.320173,0.27289,0.236117,0.219644]
new object=loadshape.res_kw_421_pu npts=24 interval=1.0 mult=[0.0928329,0.0932869,0.0952373,0.0973919,0.10307,0.108653,0.11865,0.129998,0.164022,0.195709,0.166667,0.176098,0.205884,0.367154,0.185426,0.601049,0.0987364,0.120689,0.167112,0.138313,0.143451,0.132158,0.110352,0.103118] qmult=[0.309655,0.311728,0.317785,0.325198,0.348249,0.365772,0.400935,0.444357,0.574153,0.669571,0.604402,0.609335,0.642092,0.536697,0.72657,0.810553,0.344741,0.369218,0.444361,0.390445,0.409501,0.387251,0.361135,0.329867]
new object=loadshape.res_kw_409_pu npts=24 interval=1.0 mult=[0.153926,0.15618,0.159216,0.16285,0.170018,0.180838,0.265757,0.295709,0.403115,0.398109,0.403049,0.389021,0.504376,0.480176,0.360688,0.360738,0.266958,0.271736,0.272543,0.267624,0.355497,0.289052,0.266036,0.16244] qmult=[0.254245,0.257494,0.261075,0.266275,0.278253,0.29563,0.407153,0.4576,0.622203,0.639609,0.650074,0.631009,0.904694,0.650635,0.571217,0.566592,0.42389,0.415282,0.397962,0.377025,0.468201,0.400598,0.370601,0.262762]
new object=loadshape.res_kw_121_pu npts=24 interval=1.0 mult=[0.0827211,0.075241,0.0762422,0.0768879,0.0771662,0.0789213,0.0970783,0.103932,0.123155,0.120102,0.0944034,0.0921034,0.0915295,0.115216,0.109019,0.0897023,0.140743,0.144219,0.161924,0.175708,0.162785,0.15341,0.13456,0.119283] qmult=[0.216478,0.199159,0.20095,0.202197,0.203117,0.206278,0.231006,0.242356,0.267295,0.261245,0.225398,0.222052,0.223505,0.2143,0.243276,0.216334,0.263885,0.292615,0.300833,0.310544,0.287843,0.296015,0.262932,0.22671]
new object=loadshape.res_kw_621_pu npts=24 interval=1.0 mult=[0.0797971,0.0789921,0.078742,0.0783436,0.0776815,0.0783457,0.0804474,0.11617,0.160254,0.363919,0.410687,0.37483,0.21356,0.138793,0.359602,0.114007,0.122071,0.0846837,0.183931,0.155533,0.333937,0.137609,0.254342,0.103482] qmult=[0.146624,0.14532,0.14402,0.142719,0.141418,0.141423,0.144037,0.18061,0.228005,0.544454,0.617002,0.585145,0.340994,0.242607,0.564523,0.187854,0.196057,0.157049,0.307988,0.207438,0.433237,0.19586,0.379708,0.173536]
new object=loadshape.res_kw_1193_pu npts=24 interval=1.0 mult=[0.0612905,0.0582327,0.0580259,0.0658277,0.057911,0.0645848,0.0753679,0.0817949,0.123143,0.0766718,0.0768829,0.0956176,0.0519085,0.0534973,0.0513808,0.0502193,0.0532299,0.0907726,0.101887,0.111514,0.14252,0.127915,0.0909787,0.0760457] qmult=[0.156901,0.148926,0.14788,0.165351,0.147688,0.159081,0.169985,0.180274,0.206239,0.172372,0.173362,0.197618,0.139925,0.14243,0.137407,0.134633,0.141342,0.191547,0.200541,0.212055,0.232899,0.22845,0.18922,0.18087]
new object=loadshape.res_kw_1042_pu npts=24 interval=1.0 mult=[0.136649,0.14406,0.149068,0.151954,0.156425,0.169666,0.195474,0.247475,0.193288,0.20736,0.272661,0.215989,0.209174,0.210679,0.272369,0.257841,0.313299,0.417695,0.405406,0.435175,0.419812,0.36817,0.280327,0.172434] qmult=[0.189957,0.202797,0.209825,0.214513,0.224818,0.230478,0.239912,0.260657,0.231558,0.257695,0.261468,0.229154,0.224498,0.224604,0.27202,0.241888,0.354618,0.303506,0.284371,0.279347,0.282359,0.281513,0.278191,0.233753]
new object=loadshape.res_kw_1094_pu npts=24 interval=1.0 mult=[0.459692,0.467342,0.680364,0.524792,0.543976,0.584562,0.60105,0.597617,0.483268,0.378062,0.340377,0.265226,0.252826,0.237952,0.215353,0.228846,0.380261,0.315773,0.349915,0.376292,0.453159,0.474505,0.496747,0.534945] qmult=[0.946326,0.936197,1,0.915939,0.905809,0.905809,0.926068,0.946326,0.956455,0.956455,0.946326,0.946304,0.934542,0.89937,0.847318,0.868358,1.06078,1.02736,1.04762,1.02736,1.01723,1.0071,0.986843,0.956455]
new object=loadshape.res_kw_366_pu npts=24 interval=1.0 mult=[0.42005,0.216001,0.38035,0.211176,0.198977,0.228889,0.26629,0.457584,0.463134,0.452147,0.534895,0.277748,0.356067,0.35862,0.446431,0.460177,0.497329,0.604736,0.682117,0.714319,0.377735,0.467664,0.402956,0.311096] qmult=[0.317304,0.250846,0.299704,0.244056,0.22546,0.248309,0.260972,0.372503,0.375904,0.368917,0.368372,0.277968,0.333531,0.334567,0.330232,0.394876,0.415215,0.471438,0.467298,0.444489,0.297383,0.348562,0.318803,0.311132]
new object=loadshape.res_kw_282_pu npts=24 interval=1.0 mult=[0.443869,0.397599,0.386628,0.38796,0.461959,0.398413,0.559614,0.503085,0.411757,0.442767,0.543375,0.484184,0.505706,0.460503,0.480915,0.52218,0.545651,0.657098,0.744232,0.849716,0.816488,0.612077,0.570658,0.507797] qmult=[0.696359,0.625756,0.603065,0.603553,0.692952,0.609571,0.660362,0.715221,0.651925,0.673287,0.734698,0.691686,0.712632,0.675609,0.682419,0.713014,0.754376,0.861552,0.914607,0.950105,0.979682,0.856288,0.806668,0.771629]
new object=loadshape.res_kw_852_pu npts=24 interval=1.0 mult=[0.411065,0.414184,0.225847,0.278224,0.457644,0.382245,0.365008,0.359547,0.404685,0.252842,0.240107,0.41856,0.348825,0.425903,0.32469,0.318497,0.330964,0.424668,0.499323,0.401926,0.43307,0.442097,0.484622,0.558514] qmult=[0.122421,0.121733,0.121045,0.120357,0.434522,0.325669,0.152019,0.166131,0.531773,0.228254,0.191807,0.196016,0.149472,0.390089,0.172601,0.177008,0.184166,0.211561,0.509147,0.192011,0.183682,0.1779,0.253361,0.413597]
new object=loadshape.res_kw_532_pu npts=24 interval=1.0 mult=[0.309495,0.30856,0.311399,0.314063,0.316053,0.322244,0.419758,0.374539,0.373715,0.358291,0.347202,0.37821,0.366668,0.309619,0.298366,0.301293,0.400107,0.421177,0.4545,0.459836,0.523313,0.437093,0.413952,0.341725] qmult=[0.696865,0.695501,0.700372,0.705185,0.709277,0.720023,0.899366,0.817696,0.818384,0.791674,0.771175,0.835589,0.820216,0.706472,0.682872,0.68956,0.881428,0.90694,0.942698,0.925752,1.02223,0.904622,0.860316,0.759612]
new object=loadshape.res_kw_314_pu npts=24 interval=1.0 mult=[0.11598,0.110471,0.112481,0.113742,0.114262,0.117803,0.121068,0.125802,0.114248,0.107537,0.106155,0.102156,0.100256,0.0987652,0.0966139,0.0966045,0.100163,0.108358,0.11282,0.114684,0.119431,0.226496,0.206074,0.158292] qmult=[0.231723,0.221697,0.225368,0.227972,0.229869,0.235507,0.239478,0.247628,0.230081,0.221227,0.218161,0.210281,0.207279,0.203092,0.198004,0.197525,0.202166,0.213247,0.218439,0.22034,0.22779,0.312395,0.292103,0.279167]
new object=loadshape.res_kw_611_pu npts=24 interval=1.0 mult=[0.0670699,0.0618089,0.0514668,0.0569583,0.424097,0.426443,0.228802,0.212314,0.0933641,0.264298,0.249423,0.0922619,0.281436,0.350383,0.0789384,0.579194,0.264728,0.233596,0.143368,0.0825238,0.126153,0.163288,0.0552372,0.0535823] qmult=[0.196917,0.18844,0.156115,0.172971,0.526009,0.5273,0.549622,0.500495,0.228622,0.614179,0.59001,0.231759,0.30873,0.516227,0.208502,0.981753,0.624354,0.535326,0.322866,0.195925,0.248512,0.389858,0.16052,0.158318]
new object=loadshape.res_kw_450_pu npts=24 interval=1.0 mult=[0.371756,0.316548,0.324898,0.0356061,0.109048,0.137958,0.213913,0.272824,0.296082,0.178773,0.190916,0.271073,0.447746,0.3606,0.231127,0.324979,0.221888,0.304267,0.306597,0.403649,0.464124,0.440883,0.471488,0.451591] qmult=[0.396176,0.189724,0.189047,0.18837,0.1935,0.187692,0.479911,0.556481,0.633065,0.561541,0.521065,0.523256,0.570984,0.570984,0.191756,0.191079,0.243867,0.263085,0.320602,0.596963,0.645124,0.573693,0.550423,0.532548]
new object=loadshape.res_kw_340_pu npts=24 interval=1.0 mult=[0.450523,0.446676,0.450861,0.455013,0.463117,0.506278,0.492473,0.653687,0.431389,0.367817,0.334907,0.313199,0.236276,0.344865,0.254982,0.288038,0.311606,0.356706,0.378046,0.580711,0.560242,0.475156,0.447,0.454862] qmult=[0.190991,0.190103,0.189824,0.189553,0.208515,0.435088,0.507154,0.509486,0.441677,0.436718,0.433467,0.431723,0.253893,0.435445,0.181649,0.238398,0.247135,0.263166,0.26805,0.464138,0.450298,0.258305,0.192958,0.193128]
new object=loadshape.res_kw_317_pu npts=24 interval=1.0 mult=[0.0886224,0.0880322,0.0886444,0.0929112,0.0892487,0.0905578,0.092279,0.115995,0.116547,0.109193,0.128374,0.102393,0.101508,0.0997743,0.0961317,0.096698,0.103091,0.0786589,0.0855658,0.087286,0.0909392,0.125862,0.0900232,0.0898693] qmult=[0.204584,0.203949,0.205075,0.214465,0.206931,0.208904,0.211038,0.24656,0.250327,0.236412,0.262566,0.224522,0.224746,0.220707,0.211916,0.213082,0.22196,0.182202,0.194606,0.197007,0.203336,0.247948,0.203755,0.20506]
new object=loadshape.res_kw_689_pu npts=24 interval=1.0 mult=[0.0883004,0.0852057,0.097451,0.0953454,0.0991696,0.109853,0.126992,0.151465,0.195158,0.315376,0.305422,0.893919,0.315416,0.241248,0.190957,0.175011,0.214133,0.182533,0.195369,0.199983,0.190759,0.134549,0.12639,0.0945448] qmult=[0.230139,0.221881,0.2519,0.24523,0.251065,0.268337,0.296438,0.335834,0.403807,0.527271,0.601165,0.920079,0.497921,0.448998,0.371393,0.346077,0.313047,0.325939,0.322285,0.310334,0.306407,0.274571,0.265611,0.243513]
new object=loadshape.res_kw_1258_pu npts=24 interval=1.0 mult=[0.126316,0.125594,0.126209,0.126547,0.150782,0.128326,0.131309,0.129968,0.120884,0.371649,0.369263,0.368178,0.371175,0.366571,0.251094,0.161448,0.369754,0.41201,0.438828,0.443418,0.445553,0.415208,0.404033,0.332524] qmult=[0.194661,0.194086,0.194573,0.19492,0.225184,0.196887,0.199781,0.197816,0.189326,0.480779,0.478745,0.480703,0.488285,0.482026,0.343451,0.232441,0.478425,0.518502,0.528967,0.516119,0.523798,0.50491,0.496906,0.445778]
new object=loadshape.res_kw_453_pu npts=24 interval=1.0 mult=[0.0646593,0.0493448,0.0539215,0.0563015,0.0663516,0.0599666,0.233086,0.100501,0.0867899,0.0700621,0.0806529,0.201043,0.06101,0.0586875,0.0470439,0.0585927,0.0813571,0.0905668,0.238836,0.145285,0.141059,0.264019,0.0917525,0.0732201] qmult=[0.228303,0.18053,0.194902,0.202545,0.237966,0.213981,0.234294,0.27684,0.250221,0.216253,0.251093,0.211108,0.208469,0.199824,0.176288,0.196862,0.248646,0.258495,0.265028,0.304832,0.304599,0.296805,0.258902,0.246289]
new object=loadshape.res_kw_46_pu npts=24 interval=1.0 mult=[0.0405751,0.0424242,0.0420651,0.0411946,0.0430753,0.0878787,0.128675,0.140899,0.146214,0.17353,0.175981,0.131175,0.0892262,0.0748651,0.0669993,0.0604203,0.0849507,0.134643,0.0918386,0.0437578,0.111433,0.0431175,0.0428699,0.110715] qmult=[0.104985,0.110532,0.110398,0.106785,0.112564,0.212679,0.299362,0.329782,0.369781,0.430443,0.438317,0.349752,0.255911,0.213185,0.190218,0.170522,0.187722,0.301353,0.222284,0.111673,0.261242,0.107968,0.108316,0.260954]
new object=loadshape.res_kw_898_pu npts=24 interval=1.0 mult=[0.336379,0.392958,0.341558,0.346608,0.351241,0.365751,0.469577,0.416726,0.33577,0.306721,0.281718,0.242721,0.232013,0.207386,0.207303,0.317709,0.221413,0.253853,0.420888,0.289009,0.432455,0.342662,0.38592,0.337979] qmult=[0.0957503,0.215189,0.0947762,0.0961161,0.146168,0.12194,0.157767,0.268372,0.229511,0.288157,0.295444,0.282645,0.281572,0.230408,0.205744,0.194654,0.162987,0.148778,0.154772,0.125804,0.116504,0.13156,0.233011,0.0981525]
new object=loadshape.res_kw_512_pu npts=24 interval=1.0 mult=[0.0993837,0.0954817,0.0956285,0.0954229,0.0955414,0.103714,0.124933,0.135667,0.111183,0.107865,0.105346,0.119481,0.118798,0.101575,0.115868,0.246486,0.164748,0.209476,0.197283,0.203734,0.19777,0.145927,0.110047,0.108048] qmult=[0.269443,0.258358,0.257622,0.256385,0.257078,0.27416,0.305424,0.326242,0.285221,0.280021,0.274374,0.296965,0.299007,0.268648,0.2898,0.29255,0.370816,0.414348,0.410088,0.402325,0.396267,0.35385,0.293981,0.289564]
new object=loadshape.res_kw_1013_pu npts=24 interval=1.0 mult=[0.0978178,0.0939103,0.0970185,0.0990928,0.0999906,0.109586,0.201676,0.145057,0.171331,0.181944,0.545426,0.129285,0.107369,0.104761,0.119402,0.124593,0.149405,0.313033,0.279379,0.298611,0.307554,0.617158,0.116037,0.108387] qmult=[0.211347,0.207717,0.214893,0.220385,0.224601,0.23892,0.274713,0.266727,0.372891,0.39327,0.515739,0.245305,0.223333,0.214546,0.220192,0.229589,0.31215,0.35679,0.330266,0.325222,0.431287,0.550192,0.24393,0.219749]
new object=loadshape.res_kw_779_pu npts=24 interval=1.0 mult=[0.395512,0.393211,0.398734,0.406893,0.411317,0.421112,0.428862,0.455497,0.46332,0.343039,0.296338,0.288987,0.237132,0.186125,0.228017,0.259416,0.284513,0.319678,0.351573,0.415595,0.393694,0.485286,0.496568,0.493212] qmult=[0.126284,0.125677,0.126051,0.126764,0.127011,0.128242,0.12985,0.28282,0.292658,0.440975,0.374377,0.43154,0.408145,0.100416,0.10572,0.135598,0.142158,0.152681,0.192577,0.355993,0.181501,0.454213,0.434873,0.158378]
new object=loadshape.res_kw_850_pu npts=24 interval=1.0 mult=[0.467205,0.44697,0.54435,0.467952,0.478863,0.503212,0.53191,0.689913,0.4437,0.487671,0.379796,0.342157,0.393527,0.309028,0.269265,0.373113,0.324318,0.450154,0.393916,0.446651,0.563054,0.503869,0.483863,0.492553] qmult=[0.307356,0.264049,0.48374,0.273491,0.282567,0.294427,0.301219,0.302027,0.272783,0.48484,0.247304,0.224296,0.217359,0.211394,0.193503,0.39841,0.189751,0.492862,0.255637,0.276406,0.488689,0.337396,0.287969,0.294598]
new object=loadshape.res_kw_1036_pu npts=24 interval=1.0 mult=[0.561232,0.551884,0.564874,0.578385,0.592392,0.610354,0.916398,0.551281,0.356179,0.282479,0.251323,0.205533,0.35441,0.211579,0.240536,0.417438,0.295402,0.336507,0.351989,0.383217,0.482612,0.510718,0.602192,0.556164] qmult=[0.391321,0.388621,0.385921,0.383222,0.380522,0.380522,0.408412,0.391321,0.39402,0.330621,0.302115,0.262484,0.414372,0.270628,0.293789,1.04901,0.343974,0.390485,0.410284,0.412918,0.410218,0.407518,0.711487,0.39402]
new object=loadshape.res_kw_224_pu npts=24 interval=1.0 mult=[0.403136,0.475505,0.412396,0.425545,0.437099,0.453984,0.463689,0.436164,0.322638,0.223531,0.187866,0.154597,0.137428,0.103024,0.0636195,0.170251,0.182672,0.298598,0.332782,0.401981,0.425387,0.506081,0.430714,0.446835] qmult=[0.128221,0.39323,0.12731,0.127884,0.12827,0.130304,0.133497,0.132196,0.119521,0.107565,0.10223,0.0982035,0.0981683,0.0939969,0.0892233,0.111547,0.105638,0.164561,0.171716,0.144,0.170359,0.471891,0.135582,0.136532]
new object=loadshape.res_kw_616_pu npts=24 interval=1.0 mult=[0.113531,0.113248,0.116876,0.110644,0.11281,0.117872,0.134815,0.167707,0.137104,0.168815,0.130754,0.153186,0.162558,0.687698,0.354995,0.136134,0.182202,0.218561,0.238613,0.266401,0.758082,0.197244,0.154609,0.133478] qmult=[0.272424,0.273678,0.278986,0.263453,0.270916,0.277705,0.301141,0.353771,0.305853,0.33183,0.300731,0.336809,0.354569,0.639886,0.477543,0.307586,0.37071,0.433166,0.442074,0.535544,0.698655,0.380619,0.323972,0.303947]
new object=loadshape.res_kw_1115_pu npts=24 interval=1.0 mult=[0.0717982,0.168079,0.0685485,0.0700916,0.0790153,0.0736987,0.0774525,0.121239,0.0899855,0.0803785,0.0762486,0.0670574,0.0653955,0.0627476,0.0610441,0.0656493,0.0899739,0.10468,0.114302,0.139732,0.219597,0.213161,0.12314,0.136669] qmult=[0.157339,0.34136,0.151396,0.154621,0.173573,0.16189,0.165574,0.23026,0.185142,0.167489,0.158723,0.150797,0.147819,0.141656,0.137613,0.147174,0.176733,0.197284,0.2038,0.244154,0.399788,0.397879,0.2518,0.279534]
new object=loadshape.res_kw_1223_pu npts=24 interval=1.0 mult=[0.189417,0.177686,0.178837,0.180311,0.18382,0.191523,0.20067,0.202834,0.180418,0.162702,0.159204,0.149956,0.147422,0.143359,0.133985,0.129562,0.140799,0.190599,0.185141,0.196177,0.213108,0.218363,0.215346,0.213894] qmult=[0.274348,0.254937,0.255637,0.256777,0.261449,0.272228,0.286392,0.290909,0.260684,0.236445,0.23159,0.219015,0.215922,0.210398,0.197652,0.19154,0.209409,0.281816,0.27442,0.290449,0.313982,0.321639,0.315351,0.311091]
new object=loadshape.res_kw_908_pu npts=24 interval=1.0 mult=[0.0728733,0.0723117,0.0724963,0.0792227,0.0717106,0.0726629,0.0772907,0.0775817,0.0734581,0.0700901,0.158526,0.158351,0.0697369,0.0709671,0.15873,0.16519,0.179705,0.345044,0.241371,0.25018,0.234612,0.202558,0.0818652,0.0757233] qmult=[0.151538,0.15124,0.150942,0.161088,0.150343,0.150347,0.151031,0.151608,0.151887,0.151871,0.253393,0.258998,0.152159,0.152165,0.259618,0.270527,0.282656,0.306299,0.312521,0.295087,0.277965,0.2664,0.159706,0.151849]
new object=loadshape.res_kw_561_pu npts=24 interval=1.0 mult=[0.307401,0.317991,0.36164,0.394454,0.418585,0.513262,0.508998,0.303658,0.234796,0.215701,0.256093,0.202866,0.195306,0.318986,0.733118,0.232482,0.233513,0.296954,0.450719,0.356625,0.497379,0.445656,0.980801,0.469115] qmult=[0.194395,0.193697,0.192998,0.192299,0.191601,0.198481,0.192998,0.205525,0.206872,0.195678,0.278191,0.195608,0.193512,0.784497,0.811804,0.201699,0.204692,0.2176,0.564295,0.232621,0.228031,0.566626,0.923961,0.202332]
new object=loadshape.res_kw_39_pu npts=24 interval=1.0 mult=[0.103681,0.103251,0.10411,0.104454,0.120228,0.1231,0.191346,0.125339,0.119486,0.290431,0.110256,0.174617,0.103986,0.102426,0.100076,0.0997462,0.105363,0.116922,0.314812,0.55572,0.282099,0.376953,0.375946,0.374233] qmult=[0.242787,0.242816,0.243847,0.244387,0.274427,0.281799,0.344444,0.283105,0.278818,0.66681,0.265779,0.409658,0.255283,0.250549,0.244814,0.243183,0.252032,0.269215,0.451342,0.942847,0.35432,0.839147,0.840779,0.840083]
new object=loadshape.res_kw_807_pu npts=24 interval=1.0 mult=[0.0636683,0.0598308,0.0600397,0.0958658,0.23659,0.211,0.224893,0.226924,0.226403,0.261089,0.23317,0.213442,0.206369,0.214595,0.213351,0.204324,0.249295,0.282824,0.251245,0.0974331,0.233947,0.0815671,0.0741313,0.202952] qmult=[0.14682,0.138277,0.13765,0.337261,0.449481,0.464355,0.480778,0.484134,0.485979,0.50094,0.500456,0.469779,0.454802,0.473056,0.471479,0.455257,0.50949,0.541537,0.521356,0.191967,0.482994,0.171681,0.156369,0.438758]
new object=loadshape.res_kw_1228_pu npts=24 interval=1.0 mult=[0.134086,0.124718,0.126116,0.126347,0.126722,0.155252,0.177675,0.19405,0.164131,0.17413,0.140371,0.137319,0.134744,0.133343,0.148223,0.148296,0.194508,0.240747,0.295415,0.302378,0.268781,0.251503,0.183283,0.147041] qmult=[0.3037,0.283418,0.28568,0.286047,0.287907,0.321581,0.361643,0.387354,0.352104,0.36433,0.319684,0.313381,0.308816,0.304604,0.324087,0.323873,0.389776,0.446281,0.493654,0.476749,0.44956,0.427885,0.360661,0.32243]
new object=loadshape.res_kw_137_pu npts=24 interval=1.0 mult=[0.483251,0.493264,0.514159,0.531127,0.529819,0.558879,0.654027,0.822389,0.590937,0.532899,0.408058,0.337524,0.293793,0.232598,0.399008,0.222051,0.266596,0.330683,0.353226,0.427559,0.491271,0.629591,0.544284,0.652001] qmult=[0.777778,0.774606,0.771434,0.768261,0.737889,0.737889,1.87463,2.36248,2.3418,2.3418,1.17297,0.988572,1.00734,0.756923,1.67491,0.753751,0.9911,1.11332,0.782302,0.803157,0.799985,2.40971,0.978776,2.28996]
new object=loadshape.res_kw_928_pu npts=24 interval=1.0 mult=[0.0655706,0.0592501,0.0578925,0.0578664,0.0633133,0.0747647,0.144907,0.157117,0.206891,0.253575,0.245097,0.253175,0.251726,0.207496,0.220773,0.186718,0.165746,0.158139,0.192645,0.195619,0.177934,0.182292,0.119183,0.0911626] qmult=[0.142579,0.12843,0.12505,0.125256,0.139383,0.165743,0.341316,0.306811,0.454145,0.571647,0.580126,0.572141,0.57032,0.462775,0.504112,0.381495,0.318089,0.274865,0.267696,0.248064,0.222444,0.231176,0.187,0.17459]
new object=loadshape.res_kw_141_pu npts=24 interval=1.0 mult=[0.263508,0.199894,0.205125,0.214046,0.230349,0.275646,0.277942,0.285248,0.258842,0.269164,0.28541,0.259271,0.208409,0.275254,0.265096,0.206892,0.272215,0.347127,0.326643,0.330646,0.450409,0.394843,0.251462,0.248729] qmult=[0.366826,0.294427,0.296939,0.309618,0.336245,0.388694,0.375658,0.369633,0.338009,0.290407,0.37125,0.340225,0.279649,0.339766,0.32624,0.312506,0.413765,0.460754,0.397936,0.387258,0.47277,0.435146,0.349091,0.34775]
new object=loadshape.res_kw_206_pu npts=24 interval=1.0 mult=[0.108336,0.108136,0.105777,0.108338,0.126449,0.135062,0.251458,0.160272,0.280908,0.136953,0.130547,0.141784,0.100713,0.113515,0.115908,0.136329,0.18188,0.227247,0.249371,0.241506,0.227386,0.146561,0.114455,0.113057] qmult=[0.259291,0.25605,0.252549,0.255842,0.288178,0.297778,0.338599,0.343516,0.415191,0.308518,0.297052,0.316781,0.24472,0.264724,0.263774,0.293599,0.359357,0.433678,0.456803,0.417516,0.398665,0.311407,0.269681,0.268107]
new object=loadshape.res_kw_162_pu npts=24 interval=1.0 mult=[0.150874,0.146154,0.148425,0.144263,0.140638,0.157214,0.225441,0.21285,0.324016,0.308606,0.314889,0.29788,0.313468,0.257788,0.229605,0.506323,0.255821,0.278973,0.297601,0.551846,0.40489,0.360848,0.245927,0.204907] qmult=[0.301531,0.291244,0.294087,0.289737,0.285941,0.31975,0.40549,0.440906,0.622064,0.69247,0.707941,0.672202,0.699948,0.573165,0.508575,0.47554,0.456068,0.455845,0.439975,0.552038,0.472846,0.465418,0.378034,0.370236]
new object=loadshape.res_kw_1159_pu npts=24 interval=1.0 mult=[0.0597483,0.061012,0.0660663,0.0660528,0.0605962,0.0630253,0.0727395,0.074591,0.131078,0.0673618,0.064975,0.0506715,0.054767,0.052332,0.050298,0.0634866,0.0848629,0.0895688,0.0973143,0.0978343,0.0967665,0.0913149,0.0738486,0.0693911] qmult=[0.173257,0.176737,0.188769,0.18868,0.175288,0.181108,0.204644,0.209785,0.171903,0.193041,0.18728,0.151722,0.162092,0.15587,0.150691,0.18513,0.239396,0.247655,0.258451,0.251248,0.248899,0.24224,0.203012,0.198089]
new object=loadshape.res_kw_128_pu npts=24 interval=1.0 mult=[0.10455,0.0500504,0.050298,0.0526159,0.0504786,0.0512046,0.151354,0.155382,0.167358,0.0752879,0.165307,0.164786,0.151944,0.15183,0.15133,0.152556,0.141383,0.354997,0.157073,0.164551,0.0724345,0.16016,0.169384,0.146565] qmult=[0.30073,0.15601,0.155711,0.161851,0.155109,0.155134,0.420926,0.431191,0.468334,0.226531,0.467958,0.471762,0.437426,0.437415,0.435482,0.439025,0.405681,0.49596,0.431422,0.449001,0.201193,0.438798,0.457738,0.410048]
new object=loadshape.res_kw_182_pu npts=24 interval=1.0 mult=[0.0612111,0.0608907,0.063898,0.0604292,0.0601088,0.0602164,0.0719722,0.209046,0.219027,0.235162,0.234728,0.264132,0.219911,0.222431,0.219479,0.220833,0.082179,0.0633799,0.205709,0.205427,0.275186,0.123388,0.0940315,0.213251] qmult=[0.152255,0.1517,0.157494,0.150589,0.150033,0.150033,0.172364,0.405078,0.423041,0.454731,0.454176,0.457666,0.427086,0.431849,0.425341,0.428276,0.194892,0.156698,0.396349,0.395239,0.510694,0.261128,0.207387,0.41221]
new object=loadshape.res_kw_627_pu npts=24 interval=1.0 mult=[0.0632925,0.0665923,0.0804892,0.0748976,0.0726634,0.220052,0.126892,0.0732194,0.21341,0.0838116,0.0847802,0.085242,0.0849204,0.188701,0.0820472,0.0819206,0.106862,0.111885,0.135186,0.142592,0.156993,0.177905,0.087547,0.0663066] qmult=[0.132674,0.141016,0.162658,0.153014,0.149646,0.422327,0.234379,0.148161,0.412431,0.155396,0.157363,0.159401,0.160712,0.352554,0.153731,0.152789,0.154032,0.154632,0.182286,0.178228,0.211532,0.306599,0.173902,0.135725]
new object=loadshape.res_kw_822_pu npts=24 interval=1.0 mult=[0.105655,0.104968,0.106026,0.106955,0.110142,0.140348,0.140953,0.137436,0.132794,0.126683,0.642534,0.156913,0.147893,0.129297,0.113218,0.129061,0.136923,0.197455,0.193814,0.215296,0.193589,0.147052,0.123983,0.11046] qmult=[0.221594,0.220798,0.222671,0.224483,0.232906,0.252533,0.273177,0.268188,0.261128,0.251128,0.61665,0.270856,0.256609,0.254884,0.228245,0.252842,0.262642,0.297246,0.325019,0.314987,0.312674,0.270248,0.241738,0.228694]
new object=loadshape.res_kw_30_pu npts=24 interval=1.0 mult=[0.0414492,0.043227,0.0430706,0.0450694,0.0531161,0.0619459,0.0653272,0.045494,0.0507478,0.0425206,0.0384509,0.0353041,0.0344724,0.035626,0.040499,0.0499972,0.0730258,0.0858142,0.0937029,0.0938198,0.0899956,0.055803,0.0515782,0.0420864] qmult=[0.110184,0.113391,0.113847,0.117449,0.133403,0.148677,0.149314,0.119291,0.132715,0.114988,0.105935,0.098638,0.0970959,0.0995651,0.108874,0.124232,0.165787,0.158909,0.193547,0.186199,0.181897,0.139492,0.133613,0.111604]
new object=loadshape.res_kw_75_pu npts=24 interval=1.0 mult=[0.463486,0.303879,0.333722,0.330819,0.334189,0.342819,0.360088,0.33558,0.288354,0.200303,0.283724,0.307057,0.121057,0.110577,0.0983688,0.124819,0.267253,0.265135,0.219039,0.259705,0.327431,0.422648,0.317261,0.434578] qmult=[0.34049,0.168092,0.159993,0.158878,0.157762,0.157762,0.1936,0.162224,0.213529,0.163339,0.512055,0.28135,0.158867,0.153543,0.147431,0.201379,0.565989,0.34892,0.258188,0.247666,0.295834,0.54307,0.215568,0.522185]
new object=loadshape.res_kw_411_pu npts=24 interval=1.0 mult=[0.506135,0.42919,0.442666,0.0411454,0.0407855,0.0724754,0.109253,0.134442,0.128509,0.125633,0.140964,0.130616,0.640048,0.618836,0.53994,0.403001,0.375529,0.419786,0.420318,0.440644,0.456166,0.449617,0.426056,0.473385] qmult=[0.390851,0.384963,0.349673,0.27853,0.277123,0.328831,0.344905,0.449189,0.378814,0.378383,0.379703,0.382402,0.490934,0.385874,0.456269,0.439932,0.447912,0.478304,0.484878,0.581089,0.556175,0.449326,0.420618,0.360852]
new object=loadshape.res_kw_842_pu npts=24 interval=1.0 mult=[0.0957799,0.100211,0.096901,0.0977621,0.175157,0.206581,0.268314,0.239853,0.221978,0.106951,0.106257,0.375883,0.23673,0.101722,0.0990225,0.15743,0.1505,0.287811,0.42054,0.36754,0.308028,0.216639,0.161924,0.102016] qmult=[0.204545,0.215013,0.207465,0.209376,0.360718,0.411807,0.507445,0.478945,0.447975,0.211187,0.210125,0.46927,0.204467,0.202859,0.195898,0.306668,0.235507,0.513337,0.517205,0.540025,0.515334,0.363932,0.298302,0.214182]
new object=loadshape.res_kw_26_pu npts=24 interval=1.0 mult=[0.385786,0.383388,0.396583,0.407923,0.438172,0.757119,0.459765,0.457469,0.537052,0.425886,0.459871,0.548662,0.529484,0.508577,0.389359,0.262752,0.301278,0.388137,0.54128,0.675754,0.617764,0.452845,0.440571,0.526501] qmult=[0.834765,0.831617,0.846936,0.859865,0.907372,1,0.982466,1.00617,1.84254,1.72833,1.87963,1.84318,1.84052,1.81786,1.83328,0.920404,0.981657,1.24683,1.98636,2.04756,2.45389,1.19357,1.05579,1.53816]
new object=loadshape.res_kw_470_pu npts=24 interval=1.0 mult=[0.149119,0.709943,0.0940085,0.0881733,0.0902401,0.0904208,0.0891404,0.116143,0.115842,0.11849,0.114102,0.114485,0.115669,0.115882,0.144545,0.147809,0.124976,0.17706,0.193964,0.379725,0.183247,0.132595,0.123658,0.111249] qmult=[0.649395,0.861763,0.340239,0.315095,0.313321,0.31328,0.317065,0.376572,0.38177,0.392826,0.379784,0.383021,0.390247,0.390234,0.449144,0.460028,0.404027,0.512807,0.523279,0.499693,0.478299,0.39824,0.378092,0.371765]
new object=loadshape.res_kw_195_pu npts=24 interval=1.0 mult=[0.0579694,0.0577322,0.0576229,0.0599452,0.0572337,0.0639744,0.069411,0.250163,0.262734,0.972094,0.0911154,0.0921043,0.0933386,0.0934236,0.0922559,0.11412,0.121043,0.138604,0.144804,0.114939,0.109057,0.122591,0.0756622,0.0585051] qmult=[0.192914,0.192528,0.192142,0.198357,0.19137,0.210805,0.221103,0.274653,0.340631,0.976798,0.279416,0.284179,0.289714,0.289714,0.284951,0.344487,0.359935,0.398859,0.397975,0.315846,0.30117,0.339272,0.230564,0.1933]
new object=loadshape.res_kw_24_pu npts=24 interval=1.0 mult=[0.187757,0.182504,0.186007,0.187953,0.202317,0.191983,0.19546,0.244763,0.245164,0.224436,0.168568,0.216198,0.215729,0.217839,0.218819,0.224965,0.248665,0.262461,0.294956,0.389724,0.363062,0.264607,0.249786,0.192011] qmult=[0.293829,0.288726,0.292844,0.295244,0.322707,0.300017,0.303281,0.360988,0.365394,0.339828,0.273475,0.331325,0.333637,0.335642,0.33471,0.343253,0.354586,0.3802,0.408257,0.466863,0.451432,0.367592,0.350739,0.29717]
new object=loadshape.res_kw_710_pu npts=24 interval=1.0 mult=[0.19104,0.187774,0.187394,0.634391,0.182406,0.216473,0.204696,0.185876,0.0736303,0.141591,0.126056,0.0975622,0.0975059,0.0965783,0.0936554,0.0944193,0.104045,0.156453,0.160236,0.234892,0.176565,0.156119,0.246023,0.200396] qmult=[0.362507,0.358938,0.359005,0.581185,0.345949,0.375041,0.372847,0.349975,0.159606,0.250648,0.225201,0.190829,0.192827,0.190491,0.183709,0.184632,0.198544,0.259852,0.272559,0.390699,0.256475,0.242736,0.403835,0.370431]
...